Version 4
SHEET 1 880 680
WIRE 176 -336 176 -352
WIRE 272 -336 272 -352
WIRE 176 -304 176 -336
WIRE 272 -304 272 -336
WIRE -192 -224 -368 -224
WIRE 48 -224 -112 -224
WIRE 48 -160 48 -224
WIRE 48 -160 -336 -160
WIRE -160 -112 -224 -112
WIRE -32 -112 -80 -112
WIRE -112 -32 -112 -64
WIRE -336 -16 -336 -160
WIRE -224 -16 -224 -112
WIRE -224 -16 -256 -16
WIRE -144 -16 -224 -16
WIRE -32 0 -32 -112
WIRE -32 0 -80 0
WIRE 48 0 48 -160
WIRE 48 0 -32 0
WIRE 208 0 48 0
WIRE -144 16 -176 16
WIRE -112 48 -112 32
WIRE 208 48 208 0
WIRE -112 64 -112 48
WIRE -176 80 -176 16
WIRE -368 160 -368 -224
WIRE -304 160 -368 160
WIRE -176 160 -240 160
WIRE -128 160 -176 160
WIRE 48 160 48 0
WIRE 48 160 -64 160
WIRE -176 208 -176 160
FLAG -176 208 0
FLAG 208 128 0
FLAG 272 -224 0
FLAG 272 -336 5v
FLAG -112 -64 5v
FLAG 176 -224 0
FLAG 176 -336 -5v
FLAG -112 48 -5v
SYMBOL Res -64 -128 R90
WINDOW 0 0 56 VBottom 2
WINDOW 3 32 56 VTop 2
SYMATTR InstName R1
SYMATTR Value 200k
SYMBOL Res -240 -32 R90
WINDOW 0 0 56 VBottom 2
WINDOW 3 32 56 VTop 2
SYMATTR InstName R2
SYMATTR Value 100k
SYMBOL Res 192 32 R0
SYMATTR InstName R3
SYMATTR Value 10k
SYMBOL Voltage 272 -320 R0
SYMATTR InstName V1
SYMATTR Value 5
SYMBOL Voltage 176 -320 R0
SYMATTR InstName V2
SYMATTR Value -5
SYMBOL Voltage -176 64 R0
WINDOW 3 -98 216 Left 2
SYMATTR Value PULSE(0 5 10n 10n 10n 10n)
SYMATTR InstName V3
SYMBOL OpAmps/OP27 -112 -64 R0
SYMATTR InstName U1
SYMBOL Cap -240 144 R90
WINDOW 0 0 32 VBottom 2
WINDOW 3 32 32 VTop 2
SYMATTR InstName C1
SYMATTR Value 1µ
SYMBOL Cap -64 144 R90
WINDOW 0 0 32 VBottom 2
WINDOW 3 32 32 VTop 2
SYMATTR InstName C2
SYMATTR Value 1µ
SYMBOL ind -208 -208 R270
WINDOW 0 32 56 VTop 2
WINDOW 3 5 56 VBottom 2
SYMATTR InstName L1
SYMATTR Value 1m
TEXT -16 296 Left 2 ;Gain=-R1/L2
TEXT -8 336 Left 2 ;f=1/2pi(sqrt((L1)(C1C2/(C1+C2))
TEXT -264 320 Left 2 !.tran 10n 100us
